Circuit: * C:\Users\rohan\Downloads\project_zip\3_Ring Oscillator.asc

WARNING: Node X1:NC_01 is floating.
WARNING: Node X1:N001 is floating.
WARNING: Node X2:NC_01 is floating.
WARNING: Node X2:N001 is floating.
WARNING: Node X3:NC_01 is floating.
WARNING: Node X3:N001 is floating.

WARNING: Less than two connections to node X1:NC_01.  This node is used by M:X1:2.
WARNING: Less than two connections to node X1:N001.  This node is used by C:X1:1.
WARNING: Less than two connections to node X2:NC_01.  This node is used by M:X2:2.
WARNING: Less than two connections to node X2:N001.  This node is used by C:X2:1.
WARNING: Less than two connections to node X3:NC_01.  This node is used by M:X3:2.
WARNING: Less than two connections to node X3:N001.  This node is used by C:X3:1.
Direct Newton iteration for .op point succeeded.

Date: Sun Nov 14 20:20:46 2021
Total elapsed time: 0.177 seconds.

tnom = 27
temp = 27
method = modified trap
totiter = 2127
traniter = 2098
tranpoints = 1042
accept = 1042
rejected = 0
matrix size = 39
fillins = 4
solver = Normal
Matrix Compiler1: 4.70 KB object code size  2.0/1.1/[0.9]
Matrix Compiler2: 4.11 KB object code size  1.1/1.4/[0.9]

