Circuit: * C:\Users\rohan\Downloads\project_zip\Aec_project_Vth.asc

.OP point found by inspection.

Date: Sun Nov 14 15:14:00 2021
Total elapsed time: 0.077 seconds.

tnom = 27
temp = 27
method = trap
totiter = 3001
traniter = 0
tranpoints = 0
accept = 0
rejected = 0
matrix size = 17
fillins = 0
solver = Normal
Matrix Compiler1: 936 bytes object code size  0.2/0.1/[0.1]
Matrix Compiler2: 1.34 KB object code size  0.1/0.2/[0.1]

