Circuit: * C:\Users\rohan\Downloads\project_zip\Lab_5_Vth_calc.asc


Date: Sat Nov 13 23:22:07 2021
Total elapsed time: 2.327 seconds.

tnom = 27
temp = 27
method = trap
totiter = 200004
traniter = 0
tranpoints = 0
accept = 0
rejected = 0
matrix size = 10
fillins = 0
solver = Normal
Matrix Compiler1: 542 bytes object code size  0.1/0.1/[0.1]
Matrix Compiler2: off  [0.1]/0.1/0.1

